<table width="auto"  border="0" cellspacing="0" cellpadding="0"><tr><td colspan=3>House Bill/Resolution NO. <b>HB04012</b></td></tr><tr><td colspan=3>FULL TITLE : AN ACT PROHIBITING THE DUMPING OF SEWAGE SLUDGE AND INDUSTRIAL WASTE INTO THE SEAWATERS AND PROVIDING FOR PENALTIES IN VIOLATION THEREOF</td></tr><tr><td colspan=3>PRINCIPAL AUTHOR/S : <b>VILLARICA, HENRY R.</b></td></tr><tr><td colspan=3>DATE FILED : 2019-08-15</td></tr><tr><td colspan=3>SIGNIFICANCE: NATIONAL</td></tr><tr><td colspan=3>CO-AUTHORS (Journal Entries) :</td></tr><tr><td>1. Olivarez (000 2019-11-12)</td><td>2. Savellano (000 2019-11-12)</td><tr><td>3. Silverio (000 2019-11-19)</td><tr><td colspan=3><b>ACTIONS TAKEN BY THE COMMITTEE ON RULES</b></td></tr><tr><td colspan=3>REFERRAL TO THE COMMITTEE ON ECOLOGY ON 2019-08-27</td></tr></table>