<table width="auto"  border="0" cellspacing="0" cellpadding="0"><tr><td colspan=3>House Bill/Resolution NO. <b>HB00857</b></td></tr><tr><td colspan=3>FULL TITLE : AN ACT PENALIZING THE DUMPING OF SEWAGE SLUDGE AND INDUSTRIAL WASTE INTO THE SEAWATERS
</td></tr><tr><td colspan=3>PRINCIPAL AUTHOR/S : <b>VILLARICA, LINABELLE RUTH R.</b></td></tr><tr><td colspan=3>DATE FILED : 2016-07-04</td></tr><tr><td colspan=3>SIGNIFICANCE: NATIONAL</td></tr><tr><td colspan=3>NATURE : Economic</td></tr><tr><td colspan=3>CO-AUTHORS (Journal Entries) :</td></tr><tr><td>1. Bravo (M.) (016 2016-08-30)</td><td>2. Savellano (020 2016-09-07)</td><tr><td>3. Nava (000 2018-09-18)</td><tr><td colspan=3><b>ACTIONS TAKEN BY THE COMMITTEE ON RULES</b></td></tr><tr><td colspan=3>REFERRAL TO THE COMMITTEE ON ECOLOGY ON 2016-07-27</td></tr></table>